7355
  -OEChem-08072415163D

 28 27  0     0  0  0  0  0  0999 V2000
    1.3922   -0.5233   -0.1796 O   0  0  0  0  0  0  0  0  0  0  0  0
   -1.3885   -0.5304    0.1770 O   0  0  0  0  0  0  0  0  0  0  0  0
    3.2734   -1.1645    0.9816 O   0  0  0  0  0  0  0  0  0  0  0  0
   -3.2743   -1.1639   -0.9811 O   0  0  0  0  0  0  0  0  0  0  0  0
    0.7033   -1.6899    0.2827 C   0  0  0  0  0  0  0  0  0  0  0  0
   -0.7042   -1.6898   -0.2822 C   0  0  0  0  0  0  0  0  0  0  0  0
    2.6764   -0.3875    0.2499 C   0  0  0  0  0  0  0  0  0  0  0  0
   -2.6771   -0.3871   -0.2495 C   0  0  0  0  0  0  0  0  0  0  0  0
    3.2591    0.8648   -0.3076 C   0  0  0  0  0  0  0  0  0  0  0  0
   -3.2596    0.8654    0.3080 C   0  0  0  0  0  0  0  0  0  0  0  0
    2.4400    1.7496   -1.1967 C   0  0  0  0  0  0  0  0  0  0  0  0
   -2.4403    1.7500    1.1971 C   0  0  0  0  0  0  0  0  0  0  0  0
    4.5272    1.1529    0.0204 C   0  0  0  0  0  0  0  0  0  0  0  0
   -4.5275    1.1537   -0.0201 C   0  0  0  0  0  0  0  0  0  0  0  0
    1.2384   -2.5874   -0.0460 H   0  0  0  0  0  0  0  0  0  0  0  0
    0.6637   -1.6608    1.3778 H   0  0  0  0  0  0  0  0  0  0  0  0
   -1.2371   -2.5893    0.0454 H   0  0  0  0  0  0  0  0  0  0  0  0
   -0.6624   -1.6635   -1.3774 H   0  0  0  0  0  0  0  0  0  0  0  0
    2.1242    1.2069   -2.0938 H   0  0  0  0  0  0  0  0  0  0  0  0
    1.5487    2.1056   -0.6694 H   0  0  0  0  0  0  0  0  0  0  0  0
    3.0010    2.6309   -1.5260 H   0  0  0  0  0  0  0  0  0  0  0  0
   -2.1245    1.2070    2.0940 H   0  0  0  0  0  0  0  0  0  0  0  0
   -1.5489    2.1054    0.6696 H   0  0  0  0  0  0  0  0  0  0  0  0
   -3.0010    2.6315    1.5263 H   0  0  0  0  0  0  0  0  0  0  0  0
    5.0084    2.0511   -0.3540 H   0  0  0  0  0  0  0  0  0  0  0  0
    5.1250    0.5159    0.6638 H   0  0  0  0  0  0  0  0  0  0  0  0
   -5.0085    2.0520    0.3544 H   0  0  0  0  0  0  0  0  0  0  0  0
   -5.1255    0.5168   -0.6634 H   0  0  0  0  0  0  0  0  0  0  0  0
  1  5  1  0  0  0  0
  1  7  1  0  0  0  0
  2  6  1  0  0  0  0
  2  8  1  0  0  0  0
  3  7  2  0  0  0  0
  4  8  2  0  0  0  0
  5  6  1  0  0  0  0
  5 15  1  0  0  0  0
  5 16  1  0  0  0  0
  6 17  1  0  0  0  0
  6 18  1  0  0  0  0
  7  9  1  0  0  0  0
  8 10  1  0  0  0  0
  9 11  1  0  0  0  0
  9 13  2  0  0  0  0
 10 12  1  0  0  0  0
 10 14  2  0  0  0  0
 11 19  1  0  0  0  0
 11 20  1  0  0  0  0
 11 21  1  0  0  0  0
 12 22  1  0  0  0  0
 12 23  1  0  0  0  0
 12 24  1  0  0  0  0
 13 25  1  0  0  0  0
 13 26  1  0  0  0  0
 14 27  1  0  0  0  0
 14 28  1  0  0  0  0
M  END
> <PUBCHEM_COMPOUND_CID>
7355

> <PUBCHEM_CONFORMER_RMSD>
0.8

> <PUBCHEM_CONFORMER_DIVERSEORDER>
1
21
2
12
6
42
25
16
23
24
36
7
3
22
40
33
17
32
44
45
19
35
43
39
29
13
11
15
41
31
18
38
26
28
4
9
20
5
27
37
34
8
30
10
14

> <PUBCHEM_MMFF94_PARTIAL_CHARGES>
18
1 -0.43
10 -0.12
11 0.14
12 0.14
13 -0.3
14 -0.3
2 -0.43
25 0.15
26 0.15
27 0.15
28 0.15
3 -0.57
4 -0.57
5 0.28
6 0.28
7 0.71
8 0.71
9 -0.12

> <PUBCHEM_EFFECTIVE_ROTOR_COUNT>
7

> <PUBCHEM_PHARMACOPHORE_FEATURES>
2
1 3 acceptor
1 4 acceptor

> <PUBCHEM_HEAVY_ATOM_COUNT>
14

> <PUBCHEM_ATOM_DEF_STEREO_COUNT>
0

> <PUBCHEM_ATOM_UDEF_STEREO_COUNT>
0

> <PUBCHEM_BOND_DEF_STEREO_COUNT>
0

> <PUBCHEM_BOND_UDEF_STEREO_COUNT>
0

> <PUBCHEM_ISOTOPIC_ATOM_COUNT>
0

> <PUBCHEM_COMPONENT_COUNT>
1

> <PUBCHEM_CACTVS_TAUTO_COUNT>
1

> <PUBCHEM_CONFORMER_ID>
00001CBB00000001

> <PUBCHEM_MMFF94_ENERGY>
22.6294

> <PUBCHEM_FEATURE_SELFOVERLAP>
10.149

> <PUBCHEM_SHAPE_FINGERPRINT>
10149128 111 18410580582221269765
10465860 228 18338239267334621154
10498660 4 18273494567929808121
12162725 195 18410854360616800359
122479 349 18261116300146583010
13618510 140 18411989039484203841
14123260 362 18341343252730816977
15342168 16 18187374233236641589
15775835 57 18410577283686548833
17834072 32 18412548686866510273
18186145 218 18260266334935492502
19107657 9 18261964036728453068
20233049 118 18202001045195658928
20300324 65 17988643042554783469
20539926 19 18338529598343972676
20671657 1 18196662795393190078
20711983 171 18344144795526177502
21524375 3 18410856559650735339
21652331 79 18408605842522282037
21665062 11 18040438780708619724
23402539 116 18131064961497103764
23557571 272 17418097667272664911
474 4 18187367635781681185
537710 114 18343585114523189289
8199 26 18412830174474720377

> <PUBCHEM_SHAPE_MULTIPOLES>
264.64
8.96
2.03
0.96
0
0.03
0
-4.11
0
0
0
0
-0.2
-1.33

> <PUBCHEM_SHAPE_SELFOVERLAP>
512.484

> <PUBCHEM_SHAPE_VOLUME>
160.2

> <PUBCHEM_COORDINATE_TYPE>
2
5
10

$$$$
